 &time_control
 run_days                            = 0,
 run_hours = 0
 run_minutes                         = 00,
 run_seconds                         = 00,
 start_year = 2018
 start_month = 06
 start_day = 20
 start_hour = 06
 start_minute                        = 00,   30,   00,
 start_second                        = 00,   00,   00,
 end_year = 2018
 end_month = 06
 end_day = 20
 end_hour = 08
 end_minute                          = 00,   30,   00,
 end_second                          = 00,   00,   00,
 history_interval_m = 10
 history_interval_s                  = 00,   00,   1,
 history_outname = "/home/matze/phd/results/wrf/test/pytest/fastout_pytest_kessler_0"
 frames_per_outfile                  = 1000, 1000, 1000,
 restart                             = .false.,
 restart_interval = 120
 io_form_history                     = 2
 io_form_restart                     = 2
 io_form_input                       = 2
 io_form_boundary                    = 2
 iofields_filename = "IO_test.txt"
 auxhist4_outname = "/home/matze/phd/results/wrf/test/pytest/wrfout_pytest_kessler_0"
 auxhist4_interval_m = 30
 auxhist4_interval_s                 = 0,
 frames_per_auxhist4                 = 100000,
 io_form_auxhist4                    = 2 


 /

 &domains
 time_step = 3
 time_step_fract_num                 = 0,
 time_step_fract_den = 10
 max_dom                             = 1,
 s_we                                = 1,     1,     1,
 e_we = 3
 s_sn                                = 1,     1,     1,
 e_sn = 3
 s_vert                              = 1,     1,     1,
 e_vert = 60
 dx = 500
 dy = 500
 ztop = 5000
 grid_id                             = 1,     2,     3,
 parent_id                           = 0,     1,     2,
 i_parent_start                      = 0,     10,    15,
 j_parent_start                      = 0,     10,    15,
 parent_grid_ratio                   = 1,     3,     3,
 parent_time_step_ratio              = 1,     3,     3,
 feedback                            = 0,
 smooth_option                       = 0
 nproc_x                             = -1,
 nproc_y                             = -1,
 eta_levels = 1.0,0.9949264162615541,0.9896473613510366,0.9841555729816737,0.9784429803658514,0.9725012504853091,0.9663217835785026,0.9598957089657463,0.9532138812666543,0.9462668770694664,0.9390449921172845,0.9315382390820386,0.9237363460032074,0.9156287554749506,0.9072046246723202,0.8984528263147169,0.8893619506726701,0.8799203087323817,0.8701159366413636,0.8599366015677273,0.8493698091155095,0.8384028124485814,0.8270226232863481,0.815216024945493,0.8029695876134388,0.790269686050966,0.7771025199334582,0.7634541370524744,0.7493104596117215,0.7346573138638587,0.7194804633468169,0.7037656459903019,0.687498615374688,0.670665186435368,0.6532512859156068,0.6352430078796975,0.6166266746054611,0.5973889031804824,0.5775166781294384,0.5569974304000535,0.535819123031976,0.5139703438255955,0.491440405315822,0.46821945233833,0.44429857745182116,0.4196699444485218,0.3943269201453489,0.36826421459871755,0.34147802982556374,0.3139662170404137,0.2857284423317345,0.25676636059870805,0.22708379745030366,0.1966869386302484,0.1655845263723611,0.133788061908767,0.10131201314684392,0.06817402629746411,0.034395139975288494,0.0
 /

 &physics
 mp_physics = 1
 ra_lw_physics                       = 0,     0,     0,
 ra_sw_physics                       = 0,     0,     0,
 radt = 1
 sf_sfclay_physics = 2
 sf_surface_physics                  = 0,     0,     0,
 bl_pbl_physics = 2
 bldt                                = 0,     0,     0,
 cu_physics                          = 0,     0,     0,
 cudt                                = 0,     0,     0,
 isfflx = 1
 /

 &fdda
 /

 &dynamics
 hybrid_opt                          = 0, 
 rk_ord                              = 3,
 diff_opt                            = 2,      2,      2,
 km_opt = 4
 damp_opt                            = 0,
 zdamp = 1666
 dampcoef                            = 0.1,    0.2,    0.2
 khdif                               = 1.,      1.,    .05,
 kvdif                               = 1.,      1.,    .05,
 c_s                                 = 0.18
 c_k                                 = 0.10
 mix_isotropic = 0
 smdiv                               = 0.1,    0.1,    0.1,
 emdiv                               = 0.01,   0.01,   0.01,
 epssm                               = 0.1,    0.1,    0.1
 tke_heat_flux = 0
 tke_drag_coefficient                = 0.,
 time_step_sound                     = 6,      6,      6,
 h_mom_adv_order                     = 5,      5,      5,
 v_mom_adv_order                     = 3,      3,      3,
 h_sca_adv_order                     = 5,      5,      5,
 v_sca_adv_order                     = 3,      3,      3,
 mix_full_fields                     = .true., .true., .true.,
 non_hydrostatic                     = .true., .true., .true.,
 pert_coriolis                       = .true., .true., .true.,
 use_theta_m                         = 1,
 moist_adv_opt                        = 3 !: WENO:3; pos-definite:1; advection options
 scalar_adv_opt                       = 3
 tke_adv_opt                          = 3
 momentum_adv_opt                     = 3
 /

 &bdy_control
 periodic_x                          = .true., 
 symmetric_xs                        = .false.,
 symmetric_xe                        = .false.,
 open_xs                             = .false.,
 open_xe                             = .false.,
 periodic_y                          = .true., 
 symmetric_ys                        = .false.,
 symmetric_ye                        = .false.,
 open_ys                             = .false.,
 open_ye                             = .false.,
 /

 &grib2
 /

 &namelist_quilt
 nio_tasks_per_group = 0,
 nio_groups = 1,
 /

 &ideal
 ideal_case = 9
 /
