 &time_control
 run_days                            = 0,
 run_hours = 0
 run_minutes                         = 00,
 run_seconds                         = 00,
 start_year = 2018
 start_month = 06
 start_day = 20
 start_hour = 06
 start_minute                        = 00,   30,   00,
 start_second                        = 00,   00,   00,
 end_year = 2018
 end_month = 06
 end_day = 20
 end_hour = 08
 end_minute                          = 00,   30,   00,
 end_second                          = 00,   00,   00,
 history_interval_m = 10
 history_interval_s                  = 00,   00,   1,
 history_outname = "/home/matze/phd/results/wrf/test/pytest/fastout_pytest_kessler_0"
 frames_per_outfile                  = 1000, 1000, 1000,
 restart                             = .false.,
 restart_interval = 120
 io_form_history                     = 2
 io_form_restart                     = 2
 io_form_input                       = 2
 io_form_boundary                    = 2
 iofields_filename = "IO_test.txt"
 auxhist4_outname = "/home/matze/phd/results/wrf/test/pytest/wrfout_pytest_kessler_0"
 auxhist4_interval_m = 30
 auxhist4_interval_s                 = 0,
 frames_per_auxhist4                 = 100000,
 io_form_auxhist4                    = 2 


 /

 &domains
 time_step = 3
 time_step_fract_num                 = 0,
 time_step_fract_den = 10
 max_dom                             = 1,
 s_we                                = 1,     1,     1,
 e_we = 3
 s_sn                                = 1,     1,     1,
 e_sn = 3
 s_vert                              = 1,     1,     1,
 e_vert = 60
 dx = 500
 dy = 500
 ztop = 5000
 grid_id                             = 1,     2,     3,
 parent_id                           = 0,     1,     2,
 i_parent_start                      = 0,     10,    15,
 j_parent_start                      = 0,     10,    15,
 parent_grid_ratio                   = 1,     3,     3,
 parent_time_step_ratio              = 1,     3,     3,
 feedback                            = 0,
 smooth_option                       = 0
 nproc_x                             = -1,
 nproc_y                             = -1,
 eta_levels = 1.0,0.9953362393706872,0.9904746041043322,0.9854066987503339,0.9801334772208227,0.9746487960412031,0.9689394225417861,0.9630037300657115,0.9568264683134393,0.9504027202322222,0.9437232178077033,0.9367713308153901,0.9295524054047705,0.9220408695513271,0.914230416399199,0.906119199067241,0.8976854764625016,0.8889189892464489,0.8798095544935268,0.8703523351017451,0.8605274617734513,0.850322952514332,0.8397263673566564,0.8287247913228614,0.8173048167600372,0.8054525250222784,0.7931534674770498,0.7804402528330753,0.7674109745821168,0.7540186292275297,0.7401671478794103,0.7258232093501689,0.7109666852343445,0.6955839700598195,0.6796631449854768,0.6631920123961187,0.6461502115659835,0.6285301504140968,0.6103214271814701,0.5915056788888934,0.5720710604604922,0.5518831527787548,0.5308387099480979,0.5089013907848333,0.4860333122168484,0.4621949838641644,0.4373452398438709,0.4114411676816727,0.3844380342072835,0.35628920830570415,0.3269460803909783,0.296357978463371,0.26447208060501304,0.23123332376289574,0.1965843086617006,0.16046520068225933,0.12281362653446894,0.08356456654623602,0.042650242382440154,0.0
 /

 &physics
 mp_physics = 1
 ra_lw_physics                       = 0,     0,     0,
 ra_sw_physics                       = 0,     0,     0,
 radt = 1
 sf_sfclay_physics = 2
 sf_surface_physics                  = 0,     0,     0,
 bl_pbl_physics = 2
 bldt                                = 0,     0,     0,
 cu_physics                          = 0,     0,     0,
 cudt                                = 0,     0,     0,
 isfflx = 1
 /

 &fdda
 /

 &dynamics
 hybrid_opt                          = 0, 
 rk_ord                              = 3,
 diff_opt                            = 2,      2,      2,
 km_opt = 4
 damp_opt                            = 0,
 zdamp = 1666
 dampcoef                            = 0.1,    0.2,    0.2
 khdif                               = 1.,      1.,    .05,
 kvdif                               = 1.,      1.,    .05,
 c_s                                 = 0.18
 c_k                                 = 0.10
 mix_isotropic = 0
 smdiv                               = 0.1,    0.1,    0.1,
 emdiv                               = 0.01,   0.01,   0.01,
 epssm                               = 0.1,    0.1,    0.1
 tke_heat_flux = 0
 tke_drag_coefficient                = 0.,
 time_step_sound                     = 6,      6,      6,
 h_mom_adv_order                     = 5,      5,      5,
 v_mom_adv_order                     = 3,      3,      3,
 h_sca_adv_order                     = 5,      5,      5,
 v_sca_adv_order                     = 3,      3,      3,
 mix_full_fields                     = .true., .true., .true.,
 non_hydrostatic                     = .true., .true., .true.,
 pert_coriolis                       = .true., .true., .true.,
 use_theta_m                         = 1,
 moist_adv_opt                        = 3 !: WENO:3; pos-definite:1; advection options
 scalar_adv_opt                       = 3
 tke_adv_opt                          = 3
 momentum_adv_opt                     = 3
 /

 &bdy_control
 periodic_x                          = .true., 
 symmetric_xs                        = .false.,
 symmetric_xe                        = .false.,
 open_xs                             = .false.,
 open_xe                             = .false.,
 periodic_y                          = .true., 
 symmetric_ys                        = .false.,
 symmetric_ye                        = .false.,
 open_ys                             = .false.,
 open_ye                             = .false.,
 /

 &grib2
 /

 &namelist_quilt
 nio_tasks_per_group = 0,
 nio_groups = 1,
 /

 &ideal
 ideal_case = 9
 /
