 &time_control
 run_days                            = 0,
 run_hours = 24
 run_minutes                         = 0,
 run_seconds                         = 0,
 start_year                          = 2018,
 start_month                         = 06,
 start_day                           = 20,
 start_hour = 00
 start_minute                        = 00,
 start_second                        = 00,
!~  end_year                            = 0001,
!~  end_month                           = 01,
!~  end_day                             = 01,
!~  end_hour                            = 01,
!~  end_minute                          = 00,
!~  end_second                          = 00,
 history_interval_m                  = 30,
 history_interval_s                  = 00,
 frames_per_outfile                  = 100000,
 restart                             = .false.,
 restart_interval                    = 240,
 io_form_history                     = 2
 io_form_restart                     = 2
 io_form_input                       = 2
 io_form_boundary                    = 2
 iofields_filename                   = 'LES_IO.txt'
 ignore_iofields_warning             = .true., 
 
 auxhist7_outname = "/media/HDD/Matthias/phd/results/wrf/test/fluxdelay/fastout_fluxdelay_eta_0"
 auxhist8_outname = "/media/HDD/Matthias/phd/results/wrf/test/fluxdelay/meanout_fluxdelay_eta_0"
!~  auxhist9_outname                    = '/media/HDD/Matthias/phd/results/wrf/test/pbase_test_<date>'
 history_outname = "/media/HDD/Matthias/phd/results/wrf/test/fluxdelay/wrfout_fluxdelay_eta_0"
!~  auxhist8_outname = "/media/HDD/Matthias/phd/results/wrf/test/fluxdelay/meanout_fluxdelay_eta_0"
!~  auxhist7_outname = "/media/HDD/Matthias/phd/results/wrf/test/fluxdelay/fastout_fluxdelay_eta_0"
!~  history_outname = "/media/HDD/Matthias/phd/results/wrf/test/fluxdelay/wrfout_fluxdelay_eta_0"

 auxhist7_interval                   = 10,
 frames_per_auxhist7                 = 100000,
 io_form_auxhist7                    = 2 

 auxhist8_interval                   = 30,
 frames_per_auxhist8                 = 100000,
 io_form_auxhist8                    = 2 

!~  auxhist9_interval                   = 0,
!~  frames_per_auxhist9                 = 1,
!~  io_form_auxhist9                    = 2 

 input_2d                            = .false. !use 2d input sounding
 init_pert                           = .true. !perturb initial profile for ideal cases

 !reset_simulation_start              = .true.,
 debug_level                         = 0,   ! 50,100,200,300 values give increasing prints
 /

 &domains
 time_step                           = 1,
 time_step_fract_num = 2
 time_step_fract_den = 10
 s_we                                = 1,
 e_we = 11
 s_sn                                = 1,
 e_sn = 11
 s_vert                              = 1,
 e_vert = 122
 nproc_x                             = -1,
 nproc_y                             = -1,
 dx = 200
 dy = 200
 ztop = 5000

 eta_levels = 1.0,0.9949264162615541,0.989806553790866,0.9846406655528914,0.9794284541697266,0.9741696230721456,0.9688638765823088,0.9635109199985215,0.9581104596820593,0.9526622031461032,0.9471658591467996,0.9416211377765165,0.9360277505592677,0.9303854105484057,0.9246938324265626,0.9189527326078945,0.9131618293426731,0.9073208428242309,0.9014294952983121,0.8954875111748567,0.8894946171422466,0.8834505422840608,0.8773550181983457,0.8712077791194581,0.8650085620425045,0.8587571068504027,0.8524531564436034,0.8460964568725038,0.8396867574725803,0.8332238110022724,0.8267073737836508,0.8201372058458946,0.8135130710716081,0.8068347373460174,0.8001019767090477,0.7933145655103389,0.7864722845672142,0.7795749193256173,0.7726222600240608,0.765614101860605,0.7585502451628796,0.7514304955611943,0.7442546641647312,0.7370225677408685,0.7297340288976303,0.722388876269299,0.7149869447051994,0.7075280754616673,0.7000121163972289,0.6924389221709891,0.6848083544442521,0.6771202820853729,0.6693745813778662,0.6615711362317538,0.6537098383981749,0.645790587687257,0.6378132921892388,0.629777868498857,0.6216842419429811,0.6135323468114963,0.6053221265914279,0.5970535342042818,0.5887265322466051,0.5803410932337422,0.5718971998467582,0.5633948451825214,0.5548340330069041,0.5462147780110848,0.5375371060709132,0.5288010545092987,0.5200066723615849,0.5111540206438695,0.5022431726242169,0.49327421409670985,0.4842472436582911,0.4751623729883254,0.46601972713082407,0.4568194447792515,0.44756167856385615,0.4382465953414197,0.42887437648736804,0.41944521819012726,0.4099593317476471,0.4004169438659723,0.39081829695977355,0.38116364945470366,0.3714532760914667,0.36168746823147585,0.35186653416396013,0.34199079941437754,0.33206060705399304,0.32207631801045505,0.31203831137921595,0.30194698473562237,0.2918027544474937,0.28160605598799776,0.27135734424864344,0.2610570938521602,0.25070579946507277,0.24030397610973767,0.22985215947561025,0.21935090622949785,0.20880079432455514,0.1982024233077505,0.18755641462553682,0.17686341192744168,0.16612408136728304,0.15533911190170754,0.14450921558573346,0.13363512786497478,0.12271760786419726,0.11175743867187492,0.10075542762035619,0.08971240656129595,0.07862923213593635,0.06750678603985762,0.05634597528176933,0.04514773243592956,0.033913015887736125,0.022642810072048283,0.011338125703769943,0.0
 topo                                = 2 !shape of topography: 0=flat, 1=isolated mountain, 2=cosine valley


!~  use_adaptive_time_step = .false.
!~  step_to_output_time = .true.
!~  target_cfl = 1.1,
!~  target_hcfl = 0.84
!~  max_step_increase_pct = 50, 
!~  starting_time_step = 3
!~  starting_time_step_den = 5
!~  max_time_step = 1
!~  max_time_step_den = 1
!~  min_time_step = 1
!~  min_time_step_den = 10
!~  adaptation_domain = 0


 /
   
 &physics
 mp_physics = 0
 !mp_zero_out !adjust moist fields
 !mp_zero_out_thresh
 ra_lw_physics                       = 4, !RRTMG: 4
 ra_sw_physics                       = 4,!RRTMG: 4
 radt                                = 1, !minutes between rad calls, 1 min / km dx
 swint_opt                           = 1 ! Interpolation of short-wave radiation based on the updated solar zenith angle between SW call
 slope_rad                           = 1, !sloping radiation
 const_sw                            = .false. !suppress diurnal cycle and set shortwave incoming radiation at TOA to swin
 swin                                = 478.3 !value of constant SW flux at TOA (W/m**2)
 topo_shading                        = 1  ,  !
 shadlen                             = 25000.   ! max shadow length in meters for topo_shading 1       
 sf_sfclay_physics = 2
 sf_surface_physics                  = 2, !NOAH: 2
 num_soil_layers                     = 4,
 bl_pbl_physics                      = 0, !MYNN: 5 or 6, for dx >= 500
 bl_mynn_tkebudget                   = 0,
 bl_mynn_cloudmix                    = 1, ! mixing of qc and qi
 bl_mynn_tkeadvect                   = .true.,
 bl_mynn_edmf                        = 1,
 bl_mynn_edmf_tke                    = 1,
 scalar_pblmix                       = 1, ! mix scalar fields consistent with PBL option (exch_h) 
 bldt                                = 0,
 shcu_physics                        = 0, !Park and Bretherton: 2 ; use for dx > 500
 cu_physics                          = 0,
 isfflx                              = 1, !include fluxes, needs diff_opt 2 and km_opt 3
 ifsnow                              = 0, !include snow effects on surface
 icloud                              = 1, !include effects of clouds on radiation
 ideal_xland                         = 1,
 iz0tlnd                             = 0        ! thermal roughness length for sfclay 1/5 (0 = old, 1 = veg dependent Chen-Zhang Czil)
                                                !     for mynn sfc (0=Zilitinkevitch,1=Chen-Zhang,2=mod Yang,3=const zt)
!~  traj_opt                            = 0        ! Forward trajectory calculation (Lee and Chen 2013)
!~  num_traj                            = 50       ! number of trajectories to be released
 /

 &fdda
 /

 &dynamics
 hybrid_opt                          = 2, !hybrid vertical coordinate
 Etac                                = 0.2 !threshold for isobaric eta surfaces
 diff_opt                            = 2, !turbulence and mixing option
 km_opt                              = 2, !eddy coefficient option, smagorisky (3) or prognostic TKE (2); =3 needed for isfflx?
 diff_6th_opt                        = 0, ! numerical diffusion to remove poorly resolved structures
 diff_6th_thresh            = 0.1 ! slope threshold (m/m) that turns off 6th order diff in steep terrain
 damp_opt                            = 3, !upper level damping (3: implicit)
 zdamp = 1666
 dampcoef                            = 0.2,
 khdif                               = 1., !horizontal diffusion constant (m2/s); not needed for km_opt>1
 kvdif                               = 1., !vertical diffusion constant (m
 c_s                                 = 0.18 !Smagorinsky coeff; ~0.25
 c_k                                 = 0.1 !TKE coeff; 0.15 < Ck < 0.25
 mix_isotropic                       = 0 !isotropic vertical/horizontal diffusion
 smdiv                               = 0.1, !divergence damping
 emdiv                               = 0.01, !external-mode filter coef for mass coordinate model
 epssm                               = 0.1, !time off-centering for vertical sound waves
                      !increase to 0.5 or 1 to dampen sound waves for steep topography
 tke_heat_flux                       = 0., !
 !time_step_sound                     = 6, ! number of sound steps per timestep, 0=automatically
 h_mom_adv_order                     = 5,
 v_mom_adv_order                     = 3,
 h_sca_adv_order                     = 5,
 v_sca_adv_order                     = 3,
 mix_full_fields                     = .true., !vertical diffusion on full fields (not just on perturbation from the 1D base profile)
 non_hydrostatic                     = .true.,
 pert_coriolis                       = .false., ! coriolis only acts on wind perturbation; if no large-scale pressure gradient full coriolis leads to strong imbalance
 use_theta_m                         = 1, ! moisture effect on pressure in small steps
 use_q_diabatic                      = 1 ! moisture tendency from microphysics in small
                    !includes QV and QC tendencies in advection; 
!~                    this helps to produce correct solution in an 
!~                                       idealized 'moist benchmark' test case (Bryan, 2014)
 moist_adv_opt                        = 3 !: WENO:3; pos-definite:1; advection options
 scalar_adv_opt                       = 3
 tke_adv_opt                          = 3
 momentum_adv_opt                     = 3
 sfs_opt                              = 0 !  nonlinear backscatter and anisotrophy; Sub-grid turbulent stress option for momentum
 m_opt                                = 1

!avglx: to output turbulent fluxes
 do_avgflx_em                         = 1,   !activate output of hist-time-averaged mu-coupled winds
!~  les_lscale                           = 1,     ! LES length scale,  1=WRF default (dxdydz)**0.33, 2=dx

 /

 &bdy_control
 periodic_x                          = .true., 
 periodic_y                          = .true., 

!~  symmetric_xs                        = .true.,
!~  symmetric_xe                        = .true.,
!~  symmetric_ys                        = .true.,
!~  symmetric_ye                        = .true.,
 
!~  open_xs                             = .true.,
!~  open_xe                             = .true.,
!~  open_ys                             = .true.,
!~  open_ye                             = .true.,

/

 &grib2
 /

 &namelist_quilt
 nio_tasks_per_group = 0,
 nio_groups = 0,
 /

 &ideal
 ideal_case = 9
 
 
 
 
!AFWA diagnostics:
!~ &afwa
!~ afwa_diag_opt (max_dom)              = 0,       ! AFWA Diagnostic option, 1: on
!~ afwa_ptype_opt (max_dom)             = 0,       ! Precip type option, 1: on
!~ afwa_vil_opt (max_dom)               = 0,       ! Vert Int Liquid option, 1: on
!~ afwa_radar_opt (max_dom)             = 0,       ! Radar option, 1: on
!~ afwa_severe_opt (max_dom)            = 0,       ! Severe Wx option, 1: on
!~ afwa_icing_opt (max_dom)             = 0,       ! Icing option, 1: on
!~ afwa_vis_opt (max_dom)               = 0,       ! Visibility option, 1: on
!~ afwa_cloud_opt (max_dom)             = 0,       ! Cloud option, 1: on
!~ afwa_therm_opt (max_dom)             = 0,       ! Thermal indices option, 1: on
!~ afwa_turb_opt (max_dom)              = 0,       ! Turbulence option, 1: on
!~ afwa_buoy_opt (max_dom)              = 0,       ! Buoyancy option, 1: on
!~ afwa_hailcast_opt (max_dom)          = 0,       ! Hailcast option, 1: on
!~ afwa_ptype_ccn_tmp                   = 264.15,  ! CCN temperature for precipitation type calculation
!~ afwa_ptype_tot_melt                  = 50,      ! Total melting energy for precipitation type calculation
!~ progn                                = 0  !switch to use mix-activate scheme (only for Morrison, WDM6,
!~                         !WDM5, and NSSL_2MOMCCN/NSSL_2MOM

 /
